<?xml version="1.0" encoding="UTF-8"?>

<!-- generated on 2023-04-30 13:23:35 by Eclipse SUMO duarouter Version 1.14.1
<configuration xmlns:xsi="http://www.w3.org/2001/XMLSchema-instance" xsi:noNamespaceSchemaLocation="http://sumo.dlr.de/xsd/duarouterConfiguration.xsd">

    <input>
        <net-file value="citysample.net.xml"/>
        <route-files value="trips.trips.xml"/>
    </input>

    <output>
        <output-file value="xyxcitysample.rou.xml"/>
    </output>

    <time>
        <begin value="0"/>
        <end value="500"/>
    </time>

    <report>
        <no-warnings value="true"/>
        <ignore-errors value="true"/>
        <no-step-log value="true"/>
    </report>

</configuration>
-->

<routes xmlns:xsi="http://www.w3.org/2001/XMLSchema-instance" xsi:noNamespaceSchemaLocation="http://sumo.dlr.de/xsd/routes_file.xsd">
    <vehicle id="1" depart="1.00">
        <route edges="-62518639#11 62518639#11 62518639#12 62518639#13 62518639#14 387124778#0 387124778#1 387124778#2 387124778#3 387124778#4 387124778#5 326048213#2 326048213#3 326048213#4 326048213#5 904369756#7 gneE24 gneE13 -62518602#8"/>
    </vehicle>
    <vehicle id="2" depart="2.00">
        <route edges="62518543#4 62518543#5 62518543#6 62518543#7 405097256"/>
    </vehicle>
    <vehicle id="3" depart="3.00">
        <route edges="903275047#0 -903275047#0 62518604#3 62518604#4 405097264#0 405097264#1 -gneE25 gneE13 -62518602#8 -62518602#7 -62518602#6 338484786#0 338484786#1 338484786#2 338484786#3 338484786#4 338484786#5 338484786#6 -338484786#6"/>
    </vehicle>
    <vehicle id="4" depart="4.00">
        <route edges="-904349219#1 -904349220 -904349217#2 -904349217#1 -904349217#0 326054220#3 326054219#8 326054219#0 326054219#1 326054219#2 326054219#3 326054219#4 338754931#0 338754931#1 338754931#2 338754931#3 -62518701#0 -62518639#6 62518521 -904369757#6 -904369757#5 -904369757#4 337381934#0 -337381934#0"/>
    </vehicle>
    <vehicle id="5" depart="5.00">
        <route edges="-62518543#8 62518543#8 62518543#9 904369756#6 904369756#7 338818238#1 334497605#0"/>
    </vehicle>
    <vehicle id="6" depart="6.00">
        <route edges="-337381926#2 -337381926#1 -337381926#0 -904369757#12 -904369757#11 -904369757#10 -904369757#9 -405097259 62518664#1 62518664#2 62518664#3 62518664#4 62518543#3 62518546#0 326048213#4 326048213#5 904369756#7 gneE24 gneE13 gneE15 -62518538#2"/>
    </vehicle>
    <vehicle id="7" depart="7.00">
        <route edges="338774978#5 -338774978#5 326048213#1 326048213#2 326048213#3 326048213#4 326048213#5 904369756#7 gneE24 gneE25 903268285 338484520"/>
    </vehicle>
    <vehicle id="8" depart="8.00">
        <route edges="-62518543#9 62518543#9 904369756#6 904369756#7 gneE24 gneE13 -62518602#8 -62518602#7 -62518602#6 -62518602#5 62518636#0 62518636#1 62518636#2 62518636#3 62518636#4 62518636#5 338486764"/>
    </vehicle>
    <vehicle id="9" depart="9.00">
        <route edges="62518639#9 62518639#10 62518639#11 62518639#12 62518639#13 62518639#14 387124778#0 387124778#1 387124778#2 387124778#3 387124778#4 387124778#5 326048213#2 62518534#0 62518534#1 62518534#2 62518604#0 62518604#1 62518604#2 334497484#0 334497484#1 334497484#2 334497484#3 -334497484#3"/>
    </vehicle>
    <vehicle id="10" depart="10.00">
        <route edges="62518639#6 -62518639#6 62518521 904369757#7 62518664#0 62518664#1 62518664#2 62518664#3 62518664#4 62518543#3 62518546#0 62518546#1 338818238#3 62518534#1 62518534#2 62518534#3 62518534#4 62518534#5 62518534#6 62518694#0 457854040#0"/>
    </vehicle>
    <vehicle id="12" depart="12.00">
        <route edges="904369756#3 -904339947 -754781860#1"/>
    </vehicle>
    <vehicle id="13" depart="13.00">
        <route edges="-338484786#4 -903265891 62518636#4 62518636#5 338486764 338486769#2 -338486769#2"/>
    </vehicle>
    <vehicle id="14" depart="14.00">
        <route edges="62525132#2 62525132#3 62525132#4 386748566#4 326054219#6 326054219#7 326054219#8 326054219#0 386749308#0 386749308#1 62518680#0 62518680#1 62518680#2 62518680#3 62518680#4 62518680#5 62518680#6 62518680#7 62518680#8 62518680#9 -62518538#2 -62518614#8 -62518614#7 -62518614#6 -62518614#5 -338484676#2 -338484709#1 -338484709#0 338486774#1"/>
    </vehicle>
    <vehicle id="15" depart="15.00">
        <route edges="62518639#7 -337381931#1 -337381931#0 -904369757#10 337381925#0 337381925#1 -62518644#3 337381935#0 337381935#1 337381935#2 337381935#3 62518543#2"/>
    </vehicle>
    <vehicle id="16" depart="16.00">
        <route edges="337381934#0 -337381934#0 904369757#4 904369757#5"/>
    </vehicle>
    <vehicle id="17" depart="17.00">
        <route edges="-903275048#1 -903275048#0 334497605#2 62518604#4 405097264#0 405097264#1 903268285 338484520 -338484504#3 -338486800#4 -338486800#3 338484620#0"/>
    </vehicle>
    <vehicle id="18" depart="18.00">
        <route edges="62518680#2 62518680#3 62518680#4 62518680#5 62518680#6 62518680#7 62518680#8 62518680#9 -62518538#2 -62518614#8 -62518614#7 -62518614#6 -62518614#5 -338484676#2 -gneE21 gneE23 -gneE18 -338486802#3 -338486802#2 -338486802#1 338486802#1"/>
    </vehicle>
    <vehicle id="20" depart="20.00">
        <route edges="457854040#3 -62518604#10 -62518604#9 -62518604#8 62518524#2 62518524#3 -gneE27 -gneE26 903268285 338484520 -338484504#3 -338484504#2"/>
    </vehicle>
    <vehicle id="21" depart="21.00">
        <route edges="-62518602#2 -62518602#1 -gneE12 62518635#2 904369756#1 904369756#2 -62518644#8 -62518644#7 -62518644#6 -62518644#5 -62518664#1"/>
    </vehicle>
    <vehicle id="22" depart="22.00">
        <route edges="-338484782#2 -338484782#1 338484788#0 338484788#1 -338768435 -903387870 gneE7 gneE8 gneE9 gneE25 gneE26 -405097260#1 405097262 -62518604#6 -62518604#5"/>
    </vehicle>
    <vehicle id="23" depart="23.00">
        <route edges="-338486764 -62518636#5 -62518636#4 -62518636#3 -62518636#2 -62518636#1 -62518636#0 -62518602#4 -62518602#3 -62518602#2 -62518602#1 -gneE12 62518635#2 904369756#1 904369756#2 -62518644#8 -62518644#7 -62518644#6 -62518644#5 -62518644#4 -62518644#3 -62518644#2 -62518644#1 -62518644#0"/>
    </vehicle>
    <vehicle id="24" depart="24.00">
        <route edges="338754931#3 -62518701#0 -62518639#6 62518521 904369757#7 62518664#0 62518664#1 62518664#2 62518664#3 62518664#4 62518543#3 62518546#0 62518546#1 338818238#3 62518534#1 62518534#2 62518604#0 62518604#1 62518604#2 903275047#0 903275050#0 -903275050#0"/>
    </vehicle>
    <vehicle id="25" depart="25.00">
        <route edges="-903272159 903272159 -338484544#1 -903275046 338486800#4 338484504#3 -338484520 -903268285 -gneE25 -gneE24 -904369756#7 -904369756#6 -62518543#9"/>
    </vehicle>
    <vehicle id="26" depart="26.00">
        <route edges="-62518636#5 -62518636#4 -62518636#3 -62518636#2 -62518636#1 -62518636#0 -62518602#4 -62518602#3 -62518602#2 -62518523#7 -62518523#6 -338484788#2 -338484788#1 -338484788#0 -338484782#0 -338484785#4 -338484785#3 -338484785#2 -338484785#1 -904339950 326054221#2 326054219#2 326054219#3 326054219#4 326054219#5 326054219#6 326054219#7 326054219#8 326054219#0 386749308#0 -904349218#3 904349218#3"/>
    </vehicle>
    <vehicle id="27" depart="27.00">
        <route edges="338774978#3 338774978#4 326048213#1 326048213#2 326048213#3 326048213#4 326048213#5 904369756#7 gneE24 -gneE9 -gneE8 -gneE7 903387870 338768435 -338484788#1 -338484788#0 -338484782#0 -338484785#4 -338484785#3 -338484718#1 338486788#1"/>
    </vehicle>
    <vehicle id="28" depart="28.00">
        <route edges="-405097264#0 -62518604#4 -334497605#2 -334497605#1 -334497605#0 338818238#2 -62518546#1 -62518546#0 -62518543#3 -62518543#2 -62518543#1 62518543#1"/>
    </vehicle>
    <vehicle id="29" depart="29.00">
        <route edges="-405097260#0 405097264#1 -gneE25 -gneE9 -gneE8 62518602#1 -62518523#7 -62518523#6 -62518523#5 -62518523#4 -62518523#3 -903387872"/>
    </vehicle>
    <vehicle id="30" depart="30.00">
        <route edges="gneE24 gneE13 -62518602#8 62518602#8 -gneE13 -gneE24 338818238#1 338818238#2 338818238#3 338818238#4 338818238#5 -338774978#5 -338774978#4 -338774978#3 -338774978#2 338774978#2"/>
    </vehicle>
    <vehicle id="31" depart="31.00">
        <route edges="338484504#6 -338484504#6 -338484504#5 -338484504#4 -338484520 -903268285 gneE26 -405097260#1 405097262"/>
    </vehicle>
    <vehicle id="32" depart="32.00">
        <route edges="62518701#0 62518701#1 386748566#1 386748566#2 386748566#3 386748566#4 326054219#6 326054219#7 326054219#8 326054219#0 386749308#0 386749308#1 62518680#0 62518680#1 62518680#2 62518680#3 62518680#4 62518680#5 62518680#6 62518680#7 62518680#8 62518680#9 -62518538#2 -62518614#8 62518614#8"/>
    </vehicle>
    <vehicle id="33" depart="33.00">
        <route edges="-62518602#3 -62518602#2 -62518602#1 -gneE12 62518635#2 904369756#1 904369756#2 -62518644#8 -62518644#7 -62518644#6 -62518644#5 -62518644#4 -62518644#3 337381935#0 -337381935#0"/>
    </vehicle>
    <vehicle id="34" depart="34.00">
        <route edges="-62518680#8 62518680#8 62518680#9 -gneE15 -gneE13 -gneE24 338818238#1 338818238#2 338818238#3 338818238#4 -387124778#6 -387124778#5 -387124778#4 -387124778#3 -387124778#2 -387124778#1 -387124778#0 -62518639#14"/>
    </vehicle>
    <vehicle id="35" depart="35.00">
        <route edges="-62518543#1 62518543#1 62518543#2 -62518664#4 -62518664#3 -62518664#2 -62518664#1 -62518664#0 -904369757#7 -62518521 62518639#6 62518701#0 62518701#1 386748566#1 386748566#2 386748566#3 386748566#4 326054219#6 386749311#0 386749311#1 -338323894#2 326054220#2 904349217#0 904349223#0"/>
    </vehicle>
    <vehicle id="36" depart="36.00">
        <route edges="903265892 -338484786#4 -338484786#3 -338484786#2 -338484786#1 -338484786#0 -62518602#5 -62518602#4 -62518602#3 -62518602#2 -62518523#7 -62518523#6 -338484788#2 -338484788#1 -338484788#0 -338484782#0 -338484785#4 -338484785#3 -338484785#2 -338484785#1 -904339950 326054221#2 326054219#2 326054219#3 326054219#4 338754931#0 -62525132#5 -62525132#4 -62525132#3 -62525132#2"/>
    </vehicle>
    <vehicle id="37" depart="37.00">
        <route edges="338818238#5 -338774978#5 326048213#1 -387124778#5 -387124778#4 -387124778#3 -387124778#2 -387124778#1 -387124778#0 -62518639#14 -62518639#13 -62518639#12 -62518639#11 -62518639#10 -62518639#9 -62518639#8 -62518639#7 62518701#0 62518701#1 386748566#1 386748566#2 386748566#3 386748566#4 326054219#6 386749311#0 386749311#1 -338323894#2 326054220#2 904349217#0 -904349217#0"/>
    </vehicle>
    <vehicle id="38" depart="38.00">
        <route edges="904339940 -337381936#0 337381935#2 337381935#3 62518543#2 62518543#3 62518546#0 326048213#4 326048213#5 904369756#7 gneE24 gneE25 gneE26 gneE27 -62518524#3 62518524#3 -gneE27"/>
    </vehicle>
    <vehicle id="39" depart="39.00">
        <route edges="-62518636#3 62518636#3 62518636#4 62518636#5 62518636#6 62518636#7 62518636#8 62518636#9 62518680#6 62518680#7 62518680#8 62518680#9 -62518538#2 -62518614#8"/>
    </vehicle>
    <vehicle id="40" depart="40.00">
        <route edges="338484544#1 -903272159 903272159 -338484544#1 -903275046 338486800#4 338484504#3 -338484520 -903268285 -gneE25 -gneE24 338818238#1 338818238#2 338818238#3 338818238#4 -387124778#6 -387124778#5 -387124778#4 -387124778#3 -387124778#2 -387124778#1 -387124778#0 -62518639#14 -62518639#13 -62518639#12 -62518639#11 -62518639#10"/>
    </vehicle>
    <vehicle id="41" depart="41.00">
        <route edges="338484785#4 338484782#0 338484788#0 338484788#1 -338768435 -903387870 gneE7 gneE8 gneE9 -gneE24 338818238#1 334497605#0 -903275048#2 903275048#2"/>
    </vehicle>
    <vehicle id="42" depart="42.00">
        <route edges="-904339945 338774978#4 326048213#1 326048213#2 326048213#3 326048213#4 326048213#5 904369756#7 gneE24 gneE13 -62518602#8 -62518602#7 -62518602#6 -62518602#5 -62518602#4"/>
    </vehicle>
    <vehicle id="43" depart="43.00">
        <route edges="gneE7 -gneE12 62518635#2 904369757#0 904369757#1 904369757#2 904369757#3 904369757#4 904369757#5 904369757#6 904369757#7 904369757#8 904369757#9 337381925#0"/>
    </vehicle>
    <vehicle id="44" depart="44.00">
        <route edges="-338484786#3 -338484786#2 -338484786#1 -338484786#0 62518602#6 62518602#7 62518602#8 -gneE13 gneE25 903268285 338484520 -338484504#3"/>
    </vehicle>
    <vehicle id="45" depart="45.00">
        <route edges="-338486769#4 338486769#4 -62518602#2 -62518523#7 -62518523#6 -338484788#2 -338484788#1 -338484788#0 -338484782#0 -338484785#4 -338484785#3 -338484785#2 -338484785#1 -904339950 326054221#2 326054219#2 326054219#3 326054219#4 338754931#0 338754931#1 338754931#2 338754931#3"/>
    </vehicle>
    <vehicle id="46" depart="46.00">
        <route edges="62518636#8 -62518636#8 -62518636#7 -62518636#6 -62518636#5 -62518636#4 -62518636#3 -62518636#2 -62518636#1 -62518636#0 -62518602#4 -62518602#3 -62518602#2 -62518602#1 -gneE12 62518635#2 904369756#1 904369756#2 -904369756#2"/>
    </vehicle>
    <vehicle id="47" depart="47.00">
        <route edges="-338484583 338484583 62518523#5 62518523#6 62518523#7 -62518602#1 -gneE12 62518635#2 904369756#1 904369756#2 -62518644#8 -62518644#7 -62518644#6 -62518644#5 -62518644#4 -62518644#3 337381935#0 337381935#1 337381936#0 -904339940"/>
    </vehicle>
    <vehicle id="48" depart="48.00">
        <route edges="gneE6 62518639#1 904369756#0 904369756#1 904369756#2 -62518644#8 -62518644#7 -62518644#6 -62518644#5 62518664#2 62518664#3 405097263#2 337381935#3"/>
    </vehicle>
    <vehicle id="49" depart="49.00">
        <route edges="904369757#3 904369757#4 904369757#5 904369757#6 -62518521 62518639#6 62518701#0 62518701#1 386748566#1 386748566#2 386748566#3 -62525132#4 -62525132#3 -62525132#2 -62525132#1 683041006#0"/>
    </vehicle>
    <vehicle id="50" depart="50.00">
        <route edges="-334497534#2 334497534#2 -62518524#2 -62518524#1 -62518524#0 -62518534#4 62518534#4"/>
    </vehicle>
    <vehicle id="51" depart="51.00">
        <route edges="405097256 -405097256 62518543#8 62518543#9 904369756#6 904369756#7 gneE24 gneE25 903268285 338484520 -338484504#3 -338484504#2 -338484504#1 338484504#1"/>
    </vehicle>
    <vehicle id="52" depart="52.00">
        <route edges="-62518636#4 -62518636#3 -62518636#2 -62518636#1 -62518636#0 62518602#5 62518602#6 62518602#7 62518602#8 -gneE13 -gneE24 338818238#1 338818238#2 338818238#3 338818238#4 338818238#5 -338774978#5 -338774978#4 -338774978#3 338774978#3"/>
    </vehicle>
    <vehicle id="53" depart="53.00">
        <route edges="-338486773#0 338486788#2 338486788#3 338484788#1 338484788#2 62518523#6 62518523#7 -62518602#1 -gneE12 62518635#2 904369757#0 904369757#1 904369757#2 904369757#3 904369757#4 904369757#5 904369757#6 904369757#7 904369757#8 904369757#9 904369757#10 904369757#11 904369757#12 904369757#13 904369757#14 -904369757#14"/>
    </vehicle>
    <vehicle id="54" depart="54.00">
        <route edges="-904369757#4 -904369757#3 -904369757#2 -904369757#1 -904369757#0 -904369756#0 904369756#0"/>
    </vehicle>
    <vehicle id="55" depart="55.00">
        <route edges="903265892 -338484786#4 -338484786#3 -338484786#2 -338484786#1 -338484786#0 62518602#6 62518602#7 62518602#8 -gneE13 -gneE24 338818238#1 338818238#2 338818238#3 338818238#4 -387124778#6 -387124778#5 -387124778#4 -387124778#3 -387124778#2 -387124778#1 -387124778#0 -62518639#14 -62518639#13 -62518639#12 -62518639#11 -62518639#10"/>
    </vehicle>
    <vehicle id="56" depart="56.00">
        <route edges="326054219#8 326054219#0 386749308#0 386749308#1 62518680#0 62518680#1 62518523#1 62518523#2 62518523#3 62518523#4 -62518523#4"/>
    </vehicle>
    <vehicle id="57" depart="57.00">
        <route edges="903387872 62518523#3 62518523#4 62518523#5 62518523#6 62518523#7 -62518602#1 -gneE12 62518635#2 904369756#1 904369756#2 904369756#3 -904339947 -754781858 -405097256 -62518543#7 405097255 755795912"/>
    </vehicle>
    <vehicle id="58" depart="58.00">
        <route edges="-62518644#8 -62518644#7 -62518644#6 -62518644#5 -62518644#4 -62518644#3 -62518644#2 -62518644#1 -62518644#0 -387124778#0 -62518639#14 62518671 338774978#1"/>
    </vehicle>
    <vehicle id="59" depart="59.00">
        <route edges="338486774#1 903272159 -338484544#1 -903275046 338486800#4 338484504#3 -338484520 -903268285 -gneE25 -gneE24 338818238#1 338818238#2 -62518546#1 -62518546#0 -62518543#3 -62518664#4 -62518664#3 -62518664#2 -62518664#1 405097259 904369757#9 904369757#10 904369757#11 904369757#12 337381926#0 337381926#1 -405097261"/>
    </vehicle>
    <vehicle id="60" depart="60.00">
        <route edges="62518604#3 62518604#4 405097264#0 405097264#1 903268285 338484520 -338484504#3 338484504#3"/>
    </vehicle>
    <vehicle id="61" depart="61.00">
        <route edges="62518614#7 62518614#8 62518538#2 -gneE15 -gneE13 -gneE24 338818238#1 338818238#2 -62518546#1 -62518546#0 -62518543#3 -62518543#2 -337381935#3 -337381935#2 337381936#0"/>
    </vehicle>
    <vehicle id="63" depart="63.00">
        <route edges="-334497605#2 -334497605#1 -334497605#0 338818238#2 -62518546#1 -62518546#0 -62518543#3 -62518664#4 -62518664#3 -62518664#2 -62518664#1 -62518664#0 -904369757#7 -62518521 62518639#6 62518701#0 62518701#1 386748566#1 386748566#2 386748566#3 386748566#4 326054219#6 386749311#0 386749311#1 -338323894#2 326054220#2 904349217#0 904349217#1 904349217#2"/>
    </vehicle>
    <vehicle id="64" depart="64.00">
        <route edges="903265898 62518636#2 62518636#3 62518636#4 62518636#5 62518636#6 62518636#7 62518636#8 62518636#9 62518680#6 62518680#7"/>
    </vehicle>
    <vehicle id="65" depart="65.00">
        <route edges="-62518680#1 62518680#1 62518680#2 -338484560"/>
    </vehicle>
    <vehicle id="66" depart="66.00">
        <route edges="903265898 -62518636#1 -62518636#0 -62518602#4 -62518602#3 -62518602#2 -62518602#1 -gneE12 62518635#2 904369757#0 904369757#1 904369757#2 904369757#3 904369757#4 904369757#5 904350990"/>
    </vehicle>
    <vehicle id="67" depart="67.00">
        <route edges="-338484785#4 -338484785#3 -338484785#2 -338484785#1 -904339950 326054221#2 326054219#2 326054219#3 326054219#4 326054219#5 326054219#6 386749311#0 386749311#1 -338323894#2 326054220#2 326054220#3"/>
    </vehicle>
    <vehicle id="68" depart="68.00">
        <route edges="-338484676#2 -gneE21 gneE23 -gneE18 -338486802#3 -338486802#2 -338486802#1 -338484504#5 -338484504#4 -338484520 -903268285 -405097264#1 -405097264#0 -62518604#4 62518604#4"/>
    </vehicle>
    <vehicle id="69" depart="69.00">
        <route edges="62518604#5 -62518604#5 405097264#0 405097264#1 -gneE25 -gneE9 -gneE8 -gneE7 903387870 338768435 -338768435"/>
    </vehicle>
    <vehicle id="70" depart="70.00">
        <route edges="-gneE28 -gneE27 -gneE26 903268285 338484520 338484504#4 338484504#5 338486802#1 338486802#2 338486802#3 gneE18 338484565"/>
    </vehicle>
    <vehicle id="71" depart="71.00">
        <route edges="-62518636#3 62518636#3 62518636#4 62518636#5 62518636#6 62518636#7 62518636#8 62518636#9 -62518680#5 903265890"/>
    </vehicle>
    <vehicle id="72" depart="72.00">
        <route edges="-904349221 -904349218#0 -904349217#3 -904349217#2 -904349217#1 -904349217#0 326054220#3 326054219#8 326054219#0 326054219#1 326054219#2 326054219#3 326054219#4 338754931#0 338754931#1 338754931#2 338754931#3 -62518701#0 -62518639#6 62518521 904369757#7 62518664#0 62518664#1 62518664#2 62518664#3 62518664#4 62518543#3 62518546#0 62518546#1 -62518546#1"/>
    </vehicle>
    <vehicle id="73" depart="73.00">
        <route edges="337381935#0 337381935#1 337381935#2 337381935#3 62518543#2"/>
    </vehicle>
    <vehicle id="74" depart="74.00">
        <route edges="-62518534#2 -62518534#1 -62518534#0 326048213#3 -62518546#0 -62518543#3 -62518664#4 -62518664#3 -62518664#2 -62518664#1 -62518664#0 -904369757#7 -62518521 62518639#6 62518701#0 62518701#1 -62518701#1"/>
    </vehicle>
    <vehicle id="75" depart="75.00">
        <route edges="gneE5 gneE7 gneE8 gneE9 -gneE24 338818238#1 338818238#2 338818238#3 338818238#4 338818238#5 338818238#6"/>
    </vehicle>
    <vehicle id="76" depart="76.00">
        <route edges="-904369756#2 -904369756#1 904369757#0 904369757#1 904369757#2 337381930"/>
    </vehicle>
    <vehicle id="77" depart="77.00">
        <route edges="-338486788#0 338484785#0 338484785#1 338484785#2 338484785#3 338484785#4 338484782#0 338484788#0 338484788#1 -338768435 -903387870 gneE7 gneE8 gneE9 -gneE24 338818238#1 334497605#0 334497605#1 334497605#2 -62518604#3 -62518604#2 -62518604#1 -62518604#0"/>
    </vehicle>
    <vehicle id="79" depart="79.00">
        <route edges="-62518602#4 62518602#4 62518602#5 -62518602#5"/>
    </vehicle>
    <vehicle id="80" depart="80.00">
        <route edges="-338484709#0 -338486774#0 338486800#2 338486800#3 338486800#4 338484504#3 -338484520 -903268285 -gneE25 -gneE24 338818238#1 338818238#2 338818238#3 338818238#4 338818238#5 -338774978#5 -338774978#4 -338774978#3 -338774978#2 -338774978#1 -338774978#0 338754931#6"/>
    </vehicle>
    <vehicle id="81" depart="81.00">
        <route edges="-62518602#3 62518602#3 62518602#4 62518602#5 62518602#6 62518602#7 62518602#8 -gneE13 -gneE24 338818238#1 334497605#0 334497605#1 334497605#2 -334497502 334497484#3 -334497578 -457854040#1 903282118"/>
    </vehicle>
    <vehicle id="83" depart="83.00">
        <route edges="-62518604#10 -62518604#9 -62518604#8 -62518604#7 -62518604#6 -62518604#5 -62518604#4 -334497605#2 -334497605#1 -334497605#0 338818238#2 338818238#3 338818238#4 -387124778#6 -387124778#5 -387124778#4 387124778#4"/>
    </vehicle>
    <vehicle id="84" depart="84.00">
        <route edges="-62518543#4 -62518543#3 -62518543#2 -62518543#1 -62518543#0 -904339945 -338774978#3 -338774978#2"/>
    </vehicle>
    <vehicle id="85" depart="85.00">
        <route edges="904349218#0 904349218#1 904349218#2 904349218#3 386749308#1 62518680#0 326054221#1 904339950 338484785#1 338484785#2"/>
    </vehicle>
    <vehicle id="86" depart="86.00">
        <route edges="-gneE25 gneE13 -62518602#8 -62518602#7 -62518602#6 -62518602#5 62518636#0 62518636#1 62518636#2 62518636#3 62518636#4"/>
    </vehicle>
    <vehicle id="87" depart="87.00">
        <route edges="62518639#7 -337381931#1 -337381931#0 -904369757#10 -904369757#9 -405097259 62518664#1 62518664#2 62518664#3 62518664#4 62518543#3 62518546#0 62518546#1 338818238#3 62518534#1 62518534#2 -62518534#2"/>
    </vehicle>
    <vehicle id="88" depart="88.00">
        <route edges="-338484788#0 338484788#0 338484788#1 338484788#2 62518523#6 62518523#7 -62518602#1 -gneE12 62518635#2 904369757#0 904369757#1 904369757#2 904369757#3 904369757#4 904369757#5 904369757#6 904369757#7 904369757#8 904369757#9 904369757#10 904369757#11 -904369757#11"/>
    </vehicle>
    <vehicle id="89" depart="89.00">
        <route edges="-904349221 -904349218#0 -904349217#3 -904349217#2 -904349217#1 -904349217#0 326054220#3 326054219#8 326054219#0 326054219#1 326054219#2 326054219#3 326054219#4 338754931#0 338754931#1 338754931#2 338754931#3 338754931#4 338754931#5 338774978#0 338774978#1 338774978#2 338774978#3 338774978#4 326048213#1"/>
    </vehicle>
    <vehicle id="90" depart="90.00">
        <route edges="62518538#0 62518538#1 62518538#2 -gneE15 -gneE13 -gneE24 338818238#1 338818238#2 338818238#3 338818238#4 -387124778#6 -387124778#5 -387124778#4 -387124778#3 -387124778#2 -387124778#1 -387124778#0 -62518639#14 -62518639#13 -62518639#12 -62518639#11 -62518639#10 405097254#0"/>
    </vehicle>
    <vehicle id="91" depart="91.00">
        <route edges="gneE19 -338484709#0 -338486774#0 338486800#2 338486800#3 338486800#4 338484504#3 -338484520 -903268285 -gneE25 gneE13 -62518602#8 -62518602#7 -62518602#6 -62518602#5 -62518602#4 -62518602#3 -338486769#4"/>
    </vehicle>
    <vehicle id="92" depart="92.00">
        <route edges="-904339948 904339948 -903387869#0 903387868#1 337381934#1 -62518644#7 -62518644#6 -755795911"/>
    </vehicle>
    <vehicle id="95" depart="95.00">
        <route edges="-904349219#1 -904349220 -904349217#2 -904349217#1 -904349217#0 326054220#3 326054219#8 326054219#0 326054219#1 326054219#2 326054219#3 326054219#4 338754931#0 338754931#1 338754931#2 338754931#3 -62518701#0 -62518639#6 62518521 904369757#7 62518664#0 62518664#1 -62518644#4 -62518644#3 -62518644#2 -62518644#1"/>
    </vehicle>
    <vehicle id="96" depart="96.00">
        <route edges="-62518614#1 903275040 -903272158#1 -387198257 338484504#2 338484504#3 -338484520 -903268285 -gneE25 -gneE24 338818238#1 338818238#2 338818238#3 338818238#4 -387124778#6 -387124778#5 -387124778#4 -387124778#3 -387124778#2 -387124778#1 -387124778#0 -62518639#14 -62518639#13 -62518639#12 -62518639#11 -904350993 904345135#1"/>
    </vehicle>
    <vehicle id="97" depart="97.00">
        <route edges="-904369756#7 904369756#7 gneE24 -gneE9 -gneE8 -gneE7 903387870 338768435 -338484788#1 -338484788#0 -338484782#0 -338484785#4 -338484785#3 -338484785#2 -338484785#1 -904339950 326054221#2 326054219#2 326054219#3 326054219#4 326054219#5 326054219#6 386749311#0 386749311#1 386749311#2 386749311#3 -683041006#1 683041006#1"/>
    </vehicle>
    <vehicle id="98" depart="98.00">
        <route edges="338484504#0 338484504#1 338484504#2 338484504#3 338484504#4 338484504#5 338484504#6 -338484504#6"/>
    </vehicle>
    <vehicle id="99" depart="99.00">
        <route edges="gneE9 gneE25 gneE26 gneE27 gneE28 -62518694#3 -62518694#2 -62518694#1 62518694#1"/>
    </vehicle>
    <vehicle id="100" depart="100.00">
        <route edges="904369757#14 -904369757#14 -904369757#13 337381926#0 904347936#0 904347936#1"/>
    </vehicle>
    <vehicle id="101" depart="101.00">
        <route edges="62525132#3 62525132#4 62525132#5 338754931#1 338754931#2 338754931#3 -62518701#0 62518639#7 -337381931#1 -337381931#0 904369757#11 904369757#12 904369757#13 405097266#0 405097266#1 -405097266#1"/>
    </vehicle>
    <vehicle id="102" depart="102.00">
        <route edges="326048213#3 326048213#4 -62518558"/>
    </vehicle>
    <vehicle id="103" depart="103.00">
        <route edges="-904339947 904339947 -904369756#3 -904369756#2 -904369756#1 -62518635#2 gneE12 62518602#1 -62518523#7 -62518523#6 -62518523#5 -62518523#4 -62518523#3 -903387872 338484560 -338484560"/>
    </vehicle>
    <vehicle id="104" depart="104.00">
        <route edges="-903275048#2 -903275048#1 -903275048#0 334497605#2 62518604#4 405097264#0 405097264#1 903268285 338484520 338484504#4 338484504#5 338486802#1 338486802#2 338486802#3 gneE18 gneE19"/>
    </vehicle>
    <vehicle id="105" depart="105.00">
        <route edges="-62518636#3 62518636#3 62518636#4"/>
    </vehicle>
    <vehicle id="106" depart="106.00">
        <route edges="-904369757#5 -904369757#4 -904369757#3 -904369757#2 -904369757#1 -904369757#0 904369756#1 904369756#2 -904369756#2"/>
    </vehicle>
    <vehicle id="107" depart="107.00">
        <route edges="904369756#3 -904369756#3 -904369756#2 -904369756#1 -62518635#2 gneE12 gneE8 gneE9 gneE25 gneE26 gneE27 gneE28 gneE29"/>
    </vehicle>
    <vehicle id="108" depart="108.00">
        <route edges="338484504#5 -338484504#5 -338484504#4 -338484520 -903268285 -gneE25 -gneE24 338818238#1 338818238#2 338818238#3 62518534#1 62518534#2"/>
    </vehicle>
    <vehicle id="109" depart="109.00">
        <route edges="-387198257 -338484504#1 -338484504#0 62518614#2 62518614#3 62518614#4 62518614#5 62518614#6 62518614#7 62518614#8 62518538#2 -62518680#9 -62518680#8 -62518680#7 -62518680#6 -62518680#5 -62518680#4 -62518680#3 -62518680#2"/>
    </vehicle>
    <vehicle id="110" depart="110.00">
        <route edges="904369757#14 387124778#0 387124778#1 387124778#2 387124778#3 387124778#4 387124778#5 326048213#2 326048213#3 326048213#4 326048213#5 904369756#7 gneE24 gneE13 -62518602#8 -62518602#7 -62518602#6 338484786#0 338484786#1 338484786#2 338484786#3"/>
    </vehicle>
    <vehicle id="111" depart="111.00">
        <route edges="337381935#3 62518543#2 62518543#3 62518546#0 326048213#4 326048213#5 904369756#7 gneE24 gneE13 -62518602#8 -62518602#7 -62518602#6 -62518602#5 -62518602#4 62518602#4"/>
    </vehicle>
    <vehicle id="112" depart="112.00">
        <route edges="-338484520 -903268285 -gneE25 -gneE9 -gneE8 -gneE7 903387870 338768435 -338484788#1 -338484788#0 338484788#0"/>
    </vehicle>
    <vehicle id="113" depart="113.00">
        <route edges="326054220#1 326054220#2 326054220#3 326054219#8 326054219#0 326054219#1 326054219#2 326054219#3 326054219#4 338754931#0 338754931#1 338754931#2 -62525133#4 62525133#4"/>
    </vehicle>
    <vehicle id="114" depart="114.00">
        <route edges="-405097255 62518543#7 62518543#8 62518543#9 904369756#6 904369756#7"/>
    </vehicle>
    <vehicle id="115" depart="115.00">
        <route edges="-338484782#2 -338484782#1 338484788#0 338484788#1 -338768435 -903387870 gneE7 gneE8 gneE9 gneE25 gneE26 gneE27 -62518524#3"/>
    </vehicle>
    <vehicle id="116" depart="116.00">
        <route edges="338484788#1 -338768435 -903387870 -gneE5 62518639#1 62518639#2 62518639#3 62518639#4 62518639#5 62518639#6 62518639#7 62518639#8 62518639#9 405097254#0 405097254#1"/>
    </vehicle>
    <vehicle id="117" depart="117.00">
        <route edges="-62518602#8 62518602#8 -gneE13 gneE25 903268285 338484520 338484504#4 338484504#5 -338486802#0"/>
    </vehicle>
    <vehicle id="118" depart="118.00">
        <route edges="903275046 338484544#1 -903272159 338486774#2 62518614#3 62518614#4 62518614#5 62518614#6 62518614#7 -62518614#7"/>
    </vehicle>
    <vehicle id="119" depart="119.00">
        <route edges="338484788#0 338484788#1 -338768435 -903387870 gneE7 gneE8 gneE9 gneE25 903268285 338484520 338484504#4 338484504#5 338486802#1 338486802#2"/>
    </vehicle>
    <vehicle id="120" depart="120.00">
        <route edges="-904349218#3 904349218#3 386749308#1 62518680#0 62518680#1 62518680#2 62518680#3 62518680#4 62518680#5 62518680#6 903268277 338484786#7"/>
    </vehicle>
    <vehicle id="121" depart="121.00">